REMARK  0 active torsions:
REMARK  status: ('A' for Active; 'I' for Inactive)
REMARK       I    between atoms: N_8  and  C_21 
REMARK       I    between atoms: N_9  and  C_20 
REMARK       I    between atoms: N_9  and  C_24 
REMARK       I    between atoms: N_10  and  C_22 
REMARK       I    between atoms: N_10  and  C_30 
REMARK       I    between atoms: C_16  and  C_20 
REMARK       I    between atoms: C_21  and  C_22 
REMARK       I    between atoms: C_22  and  C_23 
REMARK       I    between atoms: C_24  and  C_28 
REMARK       I    between atoms: C_28  and  C_29 
REMARK       I    between atoms: C_30  and  C_34 
ROOT
ATOM      1  F   UNL d   1      -5.236   0.076   2.867  0.00  0.00    -0.162 F 
ATOM      2  F   UNL d   1      -5.978   1.906   1.931  0.00  0.00    -0.162 F 
ATOM      3  F   UNL d   1      -4.120   1.940   3.075  0.00  0.00    -0.162 F 
ATOM      4  O   UNL d   1       2.428  -2.134  -0.561  0.00  0.00    -0.274 OA
ATOM      5  O   UNL d   1      -0.618   0.194   1.461  0.00  0.00    -0.274 OA
ATOM      6  O   UNL d   1      -4.406   0.052   0.065  0.00  0.00    -0.266 OA
ATOM      7  O   UNL d   1       3.112   3.303  -0.821  0.00  0.00    -0.276 OA
ATOM      8  N   UNL d   1      -0.702  -0.961  -0.495  0.00  0.00    -0.288 N 
ATOM      9  N   UNL d   1       1.850  -0.910   1.273  0.00  0.00    -0.298 N 
ATOM     10  N   UNL d   1      -2.864   1.595   0.766  0.00  0.00    -0.296 N 
ATOM     11  N   UNL d   1       4.631   2.245  -2.199  0.00  0.00    -0.315 N 
ATOM     12  N   UNL d   1       3.533  -0.301   4.191  0.00  0.00    -0.195 NA
ATOM     13  C   UNL d   1      -0.197  -3.238  -0.873  0.00  0.00     0.029 A 
ATOM     14  C   UNL d   1      -1.565  -3.861  -1.127  0.00  0.00    -0.025 A 
ATOM     15  C   UNL d   1      -1.034  -2.736  -2.002  0.00  0.00     0.018 A 
ATOM     16  C   UNL d   1       0.053  -2.092   0.078  0.00  0.00     0.166 A 
ATOM     17  C   UNL d   1      -1.342  -1.294  -1.766  0.00  0.00     0.113 A 
ATOM     18  C   UNL d   1      -1.589  -5.245  -1.730  0.00  0.00     0.011 C 
ATOM     19  C   UNL d   1      -2.705  -3.612  -0.171  0.00  0.00     0.011 C 
ATOM     20  C   UNL d   1       1.558  -1.734   0.210  0.00  0.00     0.235 C 
ATOM     21  C   UNL d   1      -1.031   0.120   0.295  0.00  0.00     0.237 C 
ATOM     22  C   UNL d   1      -1.909   1.259  -0.296  0.00  0.00     0.165 C 
ATOM     23  C   UNL d   1      -1.092   2.504  -0.767  0.00  0.00    -0.011 C 
ATOM     24  C   UNL d   1       3.197  -0.440   1.573  0.00  0.00     0.177 C 
ATOM     25  C   UNL d   1      -0.248   3.128   0.359  0.00  0.00     0.013 C 
ATOM     26  C   UNL d   1      -2.065   3.583  -1.293  0.00  0.00     0.013 C 
ATOM     27  C   UNL d   1      -0.154   2.121  -1.926  0.00  0.00     0.013 C 
ATOM     28  C   UNL d   1       3.462   0.939   0.945  0.00  0.00     0.050 C 
ATOM     29  C   UNL d   1       3.594   0.915  -0.577  0.00  0.00     0.079 C 
ATOM     30  C   UNL d   1      -4.045   0.870   0.914  0.00  0.00     0.318 C 
ATOM     31  C   UNL d   1       3.386  -0.362   3.041  0.00  0.00     0.085 C 
ATOM     32  C   UNL d   1       4.864   0.230  -1.096  0.00  0.00     0.031 C 
ATOM     33  C   UNL d   1       3.729   2.308  -1.158  0.00  0.00     0.216 C 
ATOM     34  C   UNL d   1      -4.849   1.193   2.194  0.00  0.00     0.469 C 
ATOM     35  C   UNL d   1       5.111   0.916  -2.427  0.00  0.00     0.105 C 
ATOM     36  HN  UNL d   1       1.060  -0.464   1.747  0.00  0.00     0.150 HD
ATOM     37  HN  UNL d   1      -2.474   1.978   1.625  0.00  0.00     0.150 HD
ATOM     38  HN  UNL d   1       4.798   3.049  -2.793  0.00  0.00     0.149 HD
ENDROOT
TORSDOF 8
