@<TRIPOS>MOLECULE
*****
 67 69 0 0 0
SMALL
GASTEIGER

@<TRIPOS>ATOM
      1 F          -5.2359    0.0757    2.8671 F       1  UNL1       -0.1620
      2 F          -5.9776    1.9061    1.9307 F       1  UNL1       -0.1620
      3 F          -4.1203    1.9395    3.0749 F       1  UNL1       -0.1620
      4 O           2.4275   -2.1341   -0.5615 O.2     1  UNL1       -0.2737
      5 O          -0.6177    0.1944    1.4611 O.2     1  UNL1       -0.2735
      6 O          -4.4061    0.0524    0.0648 O.2     1  UNL1       -0.2660
      7 O           3.1119    3.3026   -0.8214 O.2     1  UNL1       -0.2755
      8 N          -0.7015   -0.9611   -0.4954 N.am    1  UNL1       -0.2878
      9 N           1.8503   -0.9099    1.2731 N.am    1  UNL1       -0.2983
     10 N          -2.8641    1.5954    0.7658 N.am    1  UNL1       -0.2962
     11 N           4.6315    2.2452   -2.1990 N.am    1  UNL1       -0.3151
     12 N           3.5327   -0.3006    4.1911 N.1     1  UNL1       -0.1946
     13 C          -0.1967   -3.2376   -0.8730 C.3     1  UNL1       -0.0037
     14 C          -1.5646   -3.8609   -1.1265 C.3     1  UNL1       -0.0250
     15 C          -1.0340   -2.7358   -2.0021 C.3     1  UNL1       -0.0142
     16 C           0.0527   -2.0916    0.0782 C.3     1  UNL1        0.1058
     17 C          -1.3421   -1.2938   -1.7660 C.3     1  UNL1        0.0192
     18 C          -1.5887   -5.2448   -1.7297 C.3     1  UNL1       -0.0592
     19 C          -2.7054   -3.6118   -0.1707 C.3     1  UNL1       -0.0592
     20 C           1.5575   -1.7345    0.2097 C.2     1  UNL1        0.2348
     21 C          -1.0310    0.1199    0.2953 C.2     1  UNL1        0.2371
     22 C          -1.9089    1.2592   -0.2958 C.3     1  UNL1        0.1047
     23 C          -1.0923    2.5037   -0.7668 C.3     1  UNL1       -0.0108
     24 C           3.1967   -0.4396    1.5728 C.3     1  UNL1        0.1109
     25 C          -0.2477    3.1282    0.3591 C.3     1  UNL1       -0.0579
     26 C          -2.0650    3.5828   -1.2928 C.3     1  UNL1       -0.0579
     27 C          -0.1540    2.1206   -1.9264 C.3     1  UNL1       -0.0579
     28 C           3.4617    0.9387    0.9452 C.3     1  UNL1       -0.0101
     29 C           3.5942    0.9149   -0.5766 C.3     1  UNL1        0.0396
     30 C          -4.0446    0.8696    0.9139 C.2     1  UNL1        0.3179
     31 C           3.3860   -0.3624    3.0407 C.1     1  UNL1        0.0849
     32 C           4.8644    0.2298   -1.0958 C.3     1  UNL1       -0.0262
     33 C           3.7293    2.3083   -1.1581 C.2     1  UNL1        0.2163
     34 C          -4.8494    1.1928    2.1943 C.3     1  UNL1        0.4694
     35 C           5.1108    0.9159   -2.4267 C.3     1  UNL1        0.0123
     36 H           0.6797   -3.8380   -1.0817 H       1  UNL1        0.0332
     37 H          -0.7355   -2.9495   -3.0195 H       1  UNL1        0.0325
     38 H          -0.3361   -2.3345    1.0744 H       1  UNL1        0.0600
     39 H          -0.9085   -0.6634   -2.5465 H       1  UNL1        0.0468
     40 H          -2.4213   -1.1286   -1.7170 H       1  UNL1        0.0468
     41 H          -2.5206   -5.4028   -2.2823 H       1  UNL1        0.0235
     42 H          -0.7563   -5.4046   -2.4237 H       1  UNL1        0.0235
     43 H          -1.5196   -6.0037   -0.9433 H       1  UNL1        0.0235
     44 H          -2.6879   -2.6200    0.2875 H       1  UNL1        0.0235
     45 H          -3.6619   -3.7142   -0.6943 H       1  UNL1        0.0235
     46 H          -2.6813   -4.3465    0.6411 H       1  UNL1        0.0235
     47 H          -2.4867    0.8892   -1.1458 H       1  UNL1        0.0600
     48 H           1.0600   -0.4639    1.7472 H       1  UNL1        0.1500
     49 H           3.9166   -1.1662    1.1788 H       1  UNL1        0.0657
     50 H          -2.4738    1.9779    1.6250 H       1  UNL1        0.1497
     51 H          -0.8662    3.4494    1.2032 H       1  UNL1        0.0236
     52 H           0.2903    4.0132   -0.0006 H       1  UNL1        0.0236
     53 H           0.5026    2.4282    0.7358 H       1  UNL1        0.0236
     54 H          -1.5199    4.4430   -1.6987 H       1  UNL1        0.0236
     55 H          -2.7202    3.9584   -0.4994 H       1  UNL1        0.0236
     56 H          -2.6997    3.1858   -2.0931 H       1  UNL1        0.0236
     57 H          -0.7179    1.7155   -2.7736 H       1  UNL1        0.0236
     58 H           0.4017    2.9923   -2.2910 H       1  UNL1        0.0236
     59 H           0.5816    1.3722   -1.6192 H       1  UNL1        0.0236
     60 H           4.3790    1.3702    1.3705 H       1  UNL1        0.0300
     61 H           2.6576    1.6288    1.2324 H       1  UNL1        0.0300
     62 H           2.7087    0.4740   -1.0461 H       1  UNL1        0.0395
     63 H           4.7575   -0.8530   -1.2024 H       1  UNL1        0.0288
     64 H           5.7076    0.4204   -0.4197 H       1  UNL1        0.0288
     65 H           6.1667    0.9384   -2.7067 H       1  UNL1        0.0462
     66 H           4.5202    0.4706   -3.2333 H       1  UNL1        0.0462
     67 H           4.7985    3.0487   -2.7928 H       1  UNL1        0.1487
@<TRIPOS>BOND
     1     1    34    1
     2     2    34    1
     3     3    34    1
     4     4    20    2
     5     5    21    2
     6     6    30    2
     7     7    33    2
     8     8    16    1
     9     8    17    1
    10     8    21   am
    11     9    20   am
    12     9    24    1
    13     9    48    1
    14    10    22    1
    15    10    30   am
    16    10    50    1
    17    11    33   am
    18    11    35    1
    19    11    67    1
    20    12    31    3
    21    13    14    1
    22    13    15    1
    23    13    16    1
    24    13    36    1
    25    14    15    1
    26    14    18    1
    27    14    19    1
    28    15    17    1
    29    15    37    1
    30    16    20    1
    31    16    38    1
    32    17    39    1
    33    17    40    1
    34    18    41    1
    35    18    42    1
    36    18    43    1
    37    19    44    1
    38    19    45    1
    39    19    46    1
    40    21    22    1
    41    22    23    1
    42    22    47    1
    43    23    25    1
    44    23    26    1
    45    23    27    1
    46    24    28    1
    47    24    31    1
    48    24    49    1
    49    25    51    1
    50    25    52    1
    51    25    53    1
    52    26    54    1
    53    26    55    1
    54    26    56    1
    55    27    57    1
    56    27    58    1
    57    27    59    1
    58    28    29    1
    59    28    60    1
    60    28    61    1
    61    29    32    1
    62    29    33    1
    63    29    62    1
    64    30    34    1
    65    32    35    1
    66    32    63    1
    67    32    64    1
    68    35    65    1
    69    35    66    1
